# CIF file
# This file was generated by FINDSYM
# Harold T. Stokes, Branton J. Campbell, Dorian M. Hatch
# Brigham Young University, Provo, Utah, USA

data_findsym-output

_symmetry_space_group_name_H-M "P n a 21"
_symmetry_Int_Tables_number 33

_cell_length_a       5.96935
_cell_length_b       5.63781
_cell_length_c       8.30866
_cell_angle_alpha   90.00000
_cell_angle_beta    90.00000
_cell_angle_gamma   90.00000

loop_
_space_group_symop_operation_xyz
x,y,z
-x,-y,z+1/2
-x+1/2,y+1/2,z+1/2
x+1/2,-y+1/2,z

loop_
_atom_site_label
_atom_site_type_symbol
_atom_site_fract_x
_atom_site_fract_y
_atom_site_fract_z
_atom_site_occupancy
Bi Bi   0.05859   0.50000  -0.20929   1.00000
In In  -0.00133  -0.00012   0.01594   1.00000
O1 O  -0.05024  -0.11527  -0.24165   1.00000
O2 O   0.20926  -0.30214   0.43554   1.00000
O3 O   0.33909   0.15865  -0.47084   1.00000
