# CIF file
# This file was generated by FINDSYM
# Harold T. Stokes, Branton J. Campbell, Dorian M. Hatch
# Brigham Young University, Provo, Utah, USA

data_findsym-output

_symmetry_space_group_name_H-M "C m c 21"
_symmetry_Int_Tables_number 36

_cell_length_a      19.70843
_cell_length_b       5.57380
_cell_length_c       5.72349
_cell_angle_alpha   90.00000
_cell_angle_beta    90.00000
_cell_angle_gamma   90.00000

loop_
_space_group_symop_operation_xyz
x,y,z
-x,-y,z+1/2
-x,y,z
x,-y,z+1/2
x+1/2,y+1/2,z
-x+1/2,-y+1/2,z+1/2
-x+1/2,y+1/2,z
x+1/2,-y+1/2,z+1/2

loop_
_atom_site_label
_atom_site_type_symbol
_atom_site_fract_x
_atom_site_fract_y
_atom_site_fract_z
_atom_site_occupancy
Ca1 Ca  0.00000   0.23973   0.04061   1.00000
Ca2 Ca  0.19250   0.24170  -0.06387   1.00000
Hf Hf -0.39891   0.24898  -0.01077   1.00000
O1 O  -0.29927   0.34550   0.03246   1.00000
O2 O   0.00000  -0.35252  -0.04635   1.00000
O3 O   0.12143   0.44868   0.19251   1.00000
O4 O   0.07956   0.05206  -0.20795   1.00000
