# CIF file
# This file was generated by FINDSYM
# Harold T. Stokes, Branton J. Campbell, Dorian M. Hatch
# Brigham Young University, Provo, Utah, USA

data_findsym-output

_symmetry_space_group_name_H-M "C m c 21"
_symmetry_Int_Tables_number 36

_cell_length_a      19.27970
_cell_length_b       5.42716
_cell_length_c       5.42720
_cell_angle_alpha   90.00000
_cell_angle_beta    90.00000
_cell_angle_gamma   90.00000

loop_
_space_group_symop_operation_xyz
x,y,z
-x,-y,z+1/2
-x,y,z
x,-y,z+1/2
x+1/2,y+1/2,z
-x+1/2,-y+1/2,z+1/2
-x+1/2,y+1/2,z
x+1/2,-y+1/2,z+1/2

loop_
_atom_site_label
_atom_site_type_symbol
_atom_site_fract_x
_atom_site_fract_y
_atom_site_fract_z
_atom_site_occupancy
Ca1 Ca  0.00000   0.24682   0.46259   1.00000
Ca2 Ca -0.31253   0.26026   0.03855   1.00000
Ti Ti  0.09981   0.24988   0.00643   1.00000
O1 O   0.00000   0.32360   0.01424   1.00000
O2 O   0.19803   0.18339  -0.02252   1.00000
O3 O   0.08388   0.03875  -0.29313   1.00000
O4 O   0.11261   0.46040   0.28692   1.00000
