# CIF file
# This file was generated by FINDSYM
# Harold T. Stokes, Branton J. Campbell, Dorian M. Hatch
# Brigham Young University, Provo, Utah, USA

data_findsym-output

_symmetry_space_group_name_H-M "C m c 21"
_symmetry_Int_Tables_number 36

_cell_length_a      19.72762
_cell_length_b       5.60862
_cell_length_c       5.77880
_cell_angle_alpha   90.00000
_cell_angle_beta    90.00000
_cell_angle_gamma   90.00000

loop_
_space_group_symop_operation_xyz
x,y,z
-x,-y,z+1/2
-x,y,z
x,-y,z+1/2
x+1/2,y+1/2,z
-x+1/2,-y+1/2,z+1/2
-x+1/2,y+1/2,z
x+1/2,-y+1/2,z+1/2

loop_
_atom_site_label
_atom_site_type_symbol
_atom_site_fract_x
_atom_site_fract_y
_atom_site_fract_z
_atom_site_occupancy
Ca1 Ca -0.30700   0.25710   0.06700   1.00000
Ca2 Ca  0.00000  -0.23989  -0.04170   1.00000
Zr Zr  0.10168   0.25040   0.01172   1.00000
O1 O   0.20136   0.14831  -0.03608   1.00000
O2 O  -0.37645   0.05250  -0.19176   1.00000
O3 O  -0.42097   0.44486   0.20477   1.00000
O4 O   0.00000   0.35771   0.05150   1.00000
