# CIF file
# This file was generated by FINDSYM
# Harold T. Stokes, Branton J. Campbell, Dorian M. Hatch
# Brigham Young University, Provo, Utah, USA

data_findsym-output

_symmetry_space_group_name_H-M "C m c 21"
_symmetry_Int_Tables_number 36

_cell_length_a      20.75214
_cell_length_b       5.76417
_cell_length_c       5.74840
_cell_angle_alpha   90.00000
_cell_angle_beta    90.00000
_cell_angle_gamma   90.00000

loop_
_space_group_symop_operation_xyz
x,y,z
-x,-y,z+1/2
-x,y,z
x,-y,z+1/2
x+1/2,y+1/2,z
-x+1/2,-y+1/2,z+1/2
-x+1/2,y+1/2,z
x+1/2,-y+1/2,z+1/2

loop_
_atom_site_label
_atom_site_type_symbol
_atom_site_fract_x
_atom_site_fract_y
_atom_site_fract_z
_atom_site_occupancy
Sr1 Sr   0.00000   0.24716  -0.01490   1.00000
Sr2 Sr  -0.18835   0.23922   0.03321   1.00000
Hf Hf   0.40127   0.24864   0.01017   1.00000
O1 O   0.30326   0.30798  -0.00715   1.00000
O2 O   0.00000  -0.31427   0.02233   1.00000
O3 O  -0.10976   0.46677  -0.20712   1.00000
O4 O  -0.08534   0.03134   0.22767   1.00000
