# CIF file
# This file was generated by FINDSYM
# Harold T. Stokes, Branton J. Campbell, Dorian M. Hatch
# Brigham Young University, Provo, Utah, USA

data_findsym-output

_symmetry_space_group_name_H-M "C m c 21"
_symmetry_Int_Tables_number 36

_cell_length_a      20.81220
_cell_length_b       5.79826
_cell_length_c       5.79830
_cell_angle_alpha   90.00000
_cell_angle_beta    90.00000
_cell_angle_gamma   90.00000

loop_
_space_group_symop_operation_xyz
x,y,z
-x,-y,z+1/2
-x,y,z
x,-y,z+1/2
x+1/2,y+1/2,z
-x+1/2,-y+1/2,z+1/2
-x+1/2,y+1/2,z
x+1/2,-y+1/2,z+1/2

loop_
_atom_site_label
_atom_site_type_symbol
_atom_site_fract_x
_atom_site_fract_y
_atom_site_fract_z
_atom_site_occupancy
Sr1 Sr   0.18887   0.26042   0.03969   1.00000
Sr2 Sr   0.00000   0.25451  -0.02071   1.00000
Zr Zr  -0.40089   0.25138   0.01067   1.00000
O1 O  -0.30275   0.18480  -0.01270   1.00000
O2 O   0.11202   0.03783  -0.20301   1.00000
O3 O   0.08400   0.46400   0.22271   1.00000
O4 O   0.00000  -0.17735   0.02698   1.00000
