# CIF file
# This file was generated by FINDSYM
# Harold T. Stokes, Branton J. Campbell, Dorian M. Hatch
# Brigham Young University, Provo, Utah, USA

data_findsym-output

_symmetry_space_group_name_H-M "C m c 21"
_symmetry_Int_Tables_number 36

_cell_length_a      20.45640
_cell_length_b       5.91426
_cell_length_c       5.91420
_cell_angle_alpha   90.00000
_cell_angle_beta    90.00000
_cell_angle_gamma   90.00000

loop_
_space_group_symop_operation_xyz
x,y,z
-x,-y,z+1/2
-x,y,z
x,-y,z+1/2
x+1/2,y+1/2,z
-x+1/2,-y+1/2,z+1/2
-x+1/2,y+1/2,z
x+1/2,-y+1/2,z+1/2

loop_
_atom_site_label
_atom_site_type_symbol
_atom_site_fract_x
_atom_site_fract_y
_atom_site_fract_z
_atom_site_occupancy
Sr1 Sr  -0.31213   0.26429   0.04124   1.00000
Sr2 Sr   0.00000  -0.24351  -0.01857   1.00000
Zr Zr   0.09979   0.25235   0.01247   1.00000
O1 O   0.19803   0.17821  -0.01805   1.00000
O2 O  -0.38644   0.02953  -0.21107   1.00000
O3 O  -0.41628   0.47486   0.23282   1.00000
O4 O   0.00000   0.32862   0.02482   1.00000
